meas_polish_network_2383-bus.txt
#From,To,Type (1: Power Flow ; 2:Power Injection; 3: Voltage Angle)
2,17,1
3,220,1
4,11,1
4,245,1
5,7,1
5,309,1
6,5,1
6,15,1
7,29,1
7,322,1
8,18,1
9,6,1
10,5,1
11,16,1
11,17,1
11,353,1
12,7,1
14,4,1
14,17,1
15,18,1
16,73,1
18,16,1
18,75,1
18,76,1
19,425,1
20,18,1
20,67,1
21,7,1
22,526,1
22,527,1
23,37,1
23,46,1
23,53,1
24,545,1
25,41,1
25,54,1
26,568,1
27,33,1
28,88,1
29,13,1
29,32,1
29,613,1
30,29,1
30,46,1
31,32,1
34,35,1
36,645,1
37,663,1
38,26,1
38,37,1
39,40,1
40,679,1
41,80,1
42,47,1
42,54,1
43,41,1
44,40,1
44,43,1
45,29,1
45,49,1
47,28,1
47,707,1
48,27,1
48,29,1
49,30,1
50,44,1
50,100,1
50,726,1
51,34,1
51,727,1
52,754,1
53,25,1
55,38,1
56,74,1
57,81,1
58,80,1
59,63,1
59,82,1
59,821,1
61,184,1
62,61,1
62,110,1
63,91,1
64,69,1
66,68,1
67,66,1
67,911,1
68,78,1
68,978,1
68,979,1
70,73,1
71,72,1
71,1059,1
76,74,1
78,1106,1
80,81,1
80,96,1
81,93,1
83,69,1
84,83,1
84,184,1
85,60,1
85,77,1
85,86,1
86,71,1
87,88,1
87,94,1
88,79,1
89,94,1
89,1217,1
90,65,1
91,1343,1
93,64,1
94,63,1
95,64,1
95,96,1
96,63,1
97,1427,1
98,50,1
98,99,1
98,1502,1
100,92,1
102,95,1
103,78,1
103,83,1
103,104,1
104,90,1
104,1538,1
105,185,1
106,92,1
106,103,1
106,105,1
107,70,1
107,108,1
107,1552,1
107,1553,1
109,61,1
111,112,1
111,123,1
112,22,1
113,1624,1
115,116,1
115,1649,1
116,1650,1
117,140,1
118,119,1
118,142,1
120,125,1
120,1686,1
120,1687,1
121,122,1
121,1747,1
121,1748,1
123,1760,1
124,19,1
124,1763,1
125,1775,1
126,186,1
127,128,1
128,145,1
129,143,1
130,132,1
130,154,1
130,1822,1
131,114,1
131,132,1
131,147,1
131,1839,1
132,134,1
132,148,1
134,182,1
135,136,1
135,1846,1
137,138,1
138,67,1
138,116,1
139,124,1
140,12,1
140,123,1
140,139,1
142,135,1
142,1904,1
142,1905,1
143,117,1
144,141,1
144,143,1
144,147,1
144,1907,1
145,143,1
145,146,1
145,1906,1
147,1919,1
148,147,1
148,1920,1
149,143,1
149,1925,1
150,132,1
150,152,1
151,121,1
151,150,1
151,1988,1
152,153,1
156,158,1
157,127,1
158,176,1
159,176,1
160,159,1
160,2166,1
162,161,1
163,2188,1
165,163,1
166,139,1
166,155,1
167,164,1
167,166,1
169,168,1
170,171,1
171,10,1
172,173,1
173,175,1
174,170,1
177,160,1
177,176,1
178,141,1
178,2380,1
179,162,1
180,106,1
181,55,1
182,133,1
183,35,1
186,125,1
187,423,1
189,443,1
189,513,1
191,207,1
192,194,1
192,453,1
193,192,1
194,248,1
194,332,1
198,351,1
198,425,1
200,428,1
202,332,1
203,425,1
205,527,1
206,224,1
207,354,1
208,342,1
210,282,1
211,209,1
212,305,1
213,343,1
213,458,1
214,533,1
214,2249,1
215,273,1
215,279,1
216,447,1
219,3,1
219,201,1
219,218,1
220,437,1
222,262,1
222,361,1
223,372,1
223,613,1
225,510,1
225,2218,1
226,348,1
227,219,1
227,226,1
228,354,1
228,392,1
229,431,1
230,221,1
231,365,1
232,366,1
233,211,1
234,354,1
235,355,1
236,384,1
236,385,1
237,373,1
237,516,1
238,492,1
240,221,1
240,340,1
240,414,1
241,287,1
241,503,1
242,324,1
242,440,1
244,486,1
244,520,1
245,396,1
246,4,1
247,197,1
248,474,1
249,474,1
250,349,1
251,235,1
252,319,1
253,245,1
254,245,1
255,369,1
256,194,1
257,363,1
258,1753,1
259,250,1
260,365,1
261,272,1
262,438,1
263,411,1
265,258,1
265,283,1
265,422,1
267,519,1
268,527,1
269,511,1
270,246,1
273,304,1
274,281,1
274,288,1
275,534,1
277,293,1
277,406,1
279,441,1
280,267,1
280,275,1
282,291,1
282,471,1
284,239,1
284,308,1
285,195,1
292,277,1
294,290,1
296,519,1
297,298,1
297,353,1
298,525,1
299,245,1
299,276,1
299,289,1
300,658,1
301,229,1
302,295,1
303,2124,1
305,345,1
305,460,1
305,512,1
306,243,1
307,462,1
308,192,1
309,243,1
310,6,1
310,312,1
311,312,1
314,387,1
316,352,1
317,468,1
318,287,1
320,256,1
320,348,1
321,467,1
321,506,1
322,455,1
322,475,1
322,478,1
323,312,1
325,371,1
326,208,1
326,364,1
327,217,1
331,360,1
332,9,1
332,269,1
333,211,1
333,213,1
334,395,1
335,369,1
336,290,1
337,286,1
337,379,1
338,254,1
339,246,1
339,419,1
340,218,1
341,233,1
344,381,1
344,523,1
346,217,1
346,294,1
347,10,1
347,336,1
347,386,1
349,309,1
351,322,1
352,11,1
352,253,1
352,288,1
353,210,1
353,261,1
353,272,1
354,2,1
355,1,1
355,190,1
356,360,1
357,523,1
359,12,1
359,375,1
360,12,1
361,238,1
361,328,1
361,374,1
362,373,1
365,13,1
365,440,1
366,13,1
366,484,1
366,578,1
367,14,1
367,445,1
368,14,1
370,367,1
374,15,1
374,330,1
374,395,1
375,325,1
375,329,1
376,190,1
376,368,1
377,343,1
378,371,1
380,358,1
380,410,1
380,1602,1
381,314,1
382,464,1
383,488,1
384,206,1
385,389,1
386,211,1
387,415,1
389,322,1
390,529,1
391,316,1
393,359,1
393,373,1
394,532,1
396,526,1
397,512,1
398,481,1
399,1129,1
402,355,1
404,392,1
404,400,1
405,446,1
406,352,1
407,526,1
408,266,1
408,417,1
409,660,1
411,412,1
411,426,1
412,413,1
413,612,1
415,213,1
416,451,1
418,459,1
423,411,1
424,612,1
425,224,1
425,295,1
425,438,1
425,492,1
427,247,1
427,528,1
428,374,1
429,291,1
429,353,1
430,300,1
430,613,1
431,407,1
432,356,1
433,199,1
433,368,1
434,188,1
434,401,1
435,310,1
436,259,1
437,188,1
442,214,1
442,303,1
443,487,1
444,199,1
444,405,1
445,449,1
446,271,1
446,450,1
447,417,1
448,20,1
448,469,1
451,321,1
452,322,1
454,321,1
455,464,1
456,498,1
457,514,1
459,203,1
460,535,1
461,508,1
461,515,1
464,515,1
465,494,1
466,230,1
472,289,1
473,213,1
473,286,1
475,479,1
476,457,1
476,521,1
477,310,1
477,363,1
477,420,1
477,518,1
480,530,1
481,388,1
482,1078,1
482,2043,1
484,494,1
485,321,1
486,507,1
487,481,1
488,483,1
489,485,1
490,456,1
493,306,1
493,496,1
494,456,1
494,491,1
495,494,1
497,463,1
497,506,1
500,489,1
500,493,1
501,515,1
502,21,1
502,455,1
502,483,1
502,499,1
503,515,1
504,366,1
505,489,1
508,307,1
509,357,1
509,512,1
510,220,1
511,524,1
514,195,1
514,317,1
514,463,1
516,264,1
516,421,1
517,234,1
517,319,1
517,403,1
518,388,1
520,309,1
522,518,1
524,294,1
525,410,1
526,204,1
526,278,1
526,350,1
526,519,1
527,441,1
528,525,1
529,191,1
530,321,1
531,468,1
531,478,1
532,409,1
533,200,1
534,278,1
535,426,1
536,425,1
536,538,1
537,264,1
539,559,1
539,633,1
539,776,1
540,539,1
540,650,1
542,737,1
542,751,1
543,560,1
544,540,1
546,730,1
547,631,1
547,751,1
548,660,1
550,549,1
551,750,1
551,757,1
551,784,1
552,553,1
552,588,1
552,643,1
553,658,1
554,703,1
554,744,1
556,559,1
557,558,1
557,690,1
557,733,1
561,568,1
562,569,1
563,571,1
564,25,1
564,598,1
564,669,1
567,700,1
568,566,1
568,569,1
568,672,1
569,563,1
570,666,1
571,566,1
573,548,1
573,613,1
574,710,1
575,546,1
576,721,1
576,732,1
577,581,1
578,661,1
579,582,1
580,644,1
581,765,1
583,619,1
584,697,1
585,584,1
585,778,1
586,762,1
587,545,1
587,628,1
589,717,1
590,755,1
590,780,1
591,596,1
594,573,1
595,588,1
598,675,1
601,708,1
602,604,1
602,615,1
603,706,1
606,926,1
607,583,1
608,690,1
609,677,1
613,612,1
614,707,1
615,605,1
617,35,1
617,560,1
618,616,1
618,620,1
619,616,1
620,617,1
622,621,1
623,712,1
624,342,1
624,622,1
626,605,1
627,613,1
628,699,1
628,727,1
629,763,1
630,601,1
631,645,1
632,649,1
633,634,1
634,632,1
635,732,1
636,744,1
637,635,1
637,743,1
638,639,1
639,650,1
639,653,1
640,644,1
640,653,1
641,645,1
642,678,1
644,641,1
644,650,1
644,734,1
646,770,1
646,773,1
647,641,1
649,647,1
650,645,1
651,648,1
652,540,1
652,648,1
654,565,1
654,655,1
655,701,1
656,569,1
659,703,1
663,623,1
663,662,1
665,676,1
665,706,1
667,591,1
667,629,1
668,610,1
668,696,1
670,1469,1
671,549,1
671,754,1
672,547,1
674,556,1
676,439,1
678,750,1
679,677,1
679,678,1
679,684,1
679,685,1
680,701,1
681,682,1
682,39,1
683,679,1
685,541,1
685,577,1
686,644,1
688,582,1
688,680,1
689,42,1
689,664,1
689,749,1
689,1402,1
690,625,1
691,627,1
692,691,1
693,555,1
694,599,1
694,610,1
694,693,1
695,696,1
696,544,1
698,704,1
700,710,1
702,698,1
703,667,1
703,699,1
703,702,1
706,707,1
707,666,1
708,300,1
709,716,1
709,720,1
710,342,1
711,714,1
711,727,1
712,542,1
712,569,1
713,594,1
713,720,1
716,567,1
716,717,1
717,736,1
719,717,1
719,718,1
721,755,1
722,424,1
722,572,1
723,748,1
724,714,1
724,730,1
725,546,1
726,723,1
727,545,1
727,600,1
727,726,1
728,705,1
728,717,1
729,726,1
731,678,1
735,734,1
735,737,1
737,539,1
738,592,1
738,1430,1
739,546,1
739,715,1
740,543,1
742,635,1
744,768,1
746,551,1
746,621,1
747,687,1
747,777,1
748,725,1
749,582,1
750,611,1
750,673,1
752,740,1
752,741,1
753,589,1
753,750,1
754,731,1
754,759,1
755,581,1
755,781,1
756,545,1
756,619,1
757,774,1
759,758,1
760,662,1
761,550,1
763,764,1
763,767,1
765,586,1
766,697,1
769,661,1
770,686,1
771,552,1
771,595,1
772,593,1
772,707,1
773,656,1
774,615,1
775,1133,1
777,736,1
778,55,1
778,597,1
778,764,1
778,783,1
779,740,1
780,663,1
781,556,1
782,662,1
783,782,1
784,745,1
785,555,1
785,716,1
786,1183,1
787,1184,1
792,1525,1
793,1514,1
796,56,1
796,797,1
796,880,1
796,1103,1
796,1419,1
797,881,1
797,899,1
797,1004,1
797,1597,1
798,799,1
798,1163,1
799,996,1
799,1135,1
799,1300,1
800,1356,1
801,1356,1
802,1087,1
802,1586,1
806,807,1
808,971,1
808,1227,1
810,1502,1
811,812,1
815,928,1
815,1156,1
817,816,1
818,819,1
819,993,1
821,1076,1
822,919,1
823,825,1
824,826,1
825,1566,1
829,828,1
831,833,1
833,1230,1
834,60,1
834,886,1
834,991,1
835,1020,1
836,60,1
838,820,1
838,966,1
839,1349,1
840,839,1
840,1562,1
842,1096,1
843,821,1
844,822,1
847,871,1
848,870,1
849,1320,1
851,1066,1
851,1538,1
855,853,1
855,997,1
856,854,1
856,864,1
857,1169,1
857,1293,1
858,945,1
858,1162,1
858,1205,1
858,1372,1
859,1362,1
860,1556,1
862,1561,1
863,864,1
865,1432,1
866,1196,1
866,1531,1
869,867,1
869,888,1
869,914,1
870,845,1
870,1411,1
871,846,1
874,873,1
875,876,1
877,813,1
878,879,1
878,1543,1
879,1325,1
882,1503,1
883,830,1
884,885,1
885,1476,1
887,1178,1
888,996,1
890,885,1
891,1459,1
892,893,1
893,1312,1
894,1077,1
894,1514,1
896,871,1
896,1083,1
897,898,1
899,923,1
901,961,1
902,903,1
904,809,1
905,906,1
905,1569,1
906,1095,1
906,1570,1
907,1201,1
908,1203,1
908,1387,1
909,1245,1
911,827,1
912,67,1
912,965,1
912,1025,1
912,1294,1
912,1572,1
913,1454,1
914,1279,1
915,933,1
915,1072,1
917,1413,1
917,1426,1
918,812,1
918,1503,1
919,1077,1
923,470,1
923,922,1
924,822,1
924,1071,1
926,925,1
928,927,1
929,1410,1
932,931,1
932,1381,1
932,1452,1
934,916,1
936,935,1
937,938,1
938,1095,1
939,1416,1
939,1513,1
940,944,1
942,1096,1
943,1274,1
943,1539,1
944,941,1
946,859,1
947,862,1
947,1229,1
948,1256,1
949,1087,1
951,978,1
953,952,1
954,819,1
956,997,1
957,942,1
958,1469,1
959,1168,1
959,1350,1
960,961,1
962,978,1
963,1331,1
963,1460,1
965,973,1
966,1149,1
966,1215,1
967,966,1
967,1268,1
967,1324,1
967,1502,1
968,954,1
968,979,1
968,1516,1
970,972,1
971,969,1
971,1382,1
972,1384,1
973,1480,1
973,1481,1
974,919,1
974,1431,1
975,1354,1
976,1415,1
979,950,1
979,1501,1
980,981,1
981,1402,1
982,967,1
984,986,1
985,983,1
985,1058,1
986,895,1
986,1307,1
988,990,1
989,987,1
989,996,1
990,864,1
992,1183,1
992,1459,1
994,1289,1
994,1407,1
995,69,1
995,1112,1
995,1539,1
996,69,1
996,1401,1
997,856,1
997,955,1
997,1127,1
998,978,1
999,1241,1
1001,1556,1
1002,1003,1
1003,826,1
1005,1007,1
1007,1553,1
1008,1004,1
1008,1006,1
1009,1371,1
1010,1007,1
1013,892,1
1015,1019,1
1016,1018,1
1017,995,1
1017,1014,1
1020,872,1
1021,1468,1
1022,1230,1
1024,1025,1
1024,2083,1
1026,1153,1
1026,1583,1
1028,1216,1
1030,1031,1
1032,1524,1
1033,1523,1
1038,1524,1
1039,1040,1
1041,1043,1
1044,1042,1
1044,1217,1
1045,1536,1
1046,1050,1
1047,1050,1
1048,1049,1
1049,1450,1
1050,1147,1
1051,1440,1
1052,1436,1
1052,1439,1
1053,1083,1
1053,1223,1
1053,1243,1
1054,813,1
1054,1161,1
1054,1436,1
1055,1079,1
1055,1489,1
1056,1057,1
1057,891,1
1058,909,1
1059,1237,1
1060,71,1
1063,957,1
1063,1061,1
1065,1064,1
1067,1069,1
1068,1070,1
1069,1390,1
1070,1356,1
1071,1051,1
1073,916,1
1074,1133,1
1075,953,1
1076,889,1
1080,1081,1
1081,1184,1
1082,1099,1
1082,1119,1
1084,1138,1
1087,850,1
1088,1219,1
1088,1593,1
1090,1092,1
1093,1091,1
1093,1489,1
1094,1491,1
1094,1545,1
1095,77,1
1095,841,1
1095,916,1
1095,1062,1
1096,77,1
1096,1403,1
1096,1510,1
1097,837,1
1097,1471,1
1098,874,1
1098,1097,1
1098,1419,1
1100,1101,1
1101,1232,1
1101,1374,1
1102,920,1
1104,1190,1
1105,836,1
1106,835,1
1106,1170,1
1107,861,1
1107,1108,1
1108,795,1
1108,1451,1
1109,1111,1
1111,1535,1
1112,1110,1
1112,1275,1
1113,859,1
1114,80,1
1114,1354,1
1114,1409,1
1114,1483,1
1115,1484,1
1116,1285,1
1117,944,1
1118,1119,1
1120,216,1
1120,1078,1
1120,1571,1
1121,1231,1
1121,1553,1
1123,1528,1
1125,989,1
1126,990,1
1127,1124,1
1127,1452,1
1129,1128,1
1129,1553,1
1130,1131,1
1132,1532,1
1133,1430,1
1134,798,1
1136,1021,1
1136,1512,1
1138,82,1
1138,930,1
1138,1368,1
1138,1435,1
1138,1525,1
1138,1600,1
1139,929,1
1139,1451,1
1140,1188,1
1140,1257,1
1140,1396,1
1140,1598,1
1141,83,1
1141,1189,1
1142,1043,1
1143,1122,1
1145,995,1
1148,1576,1
1149,1258,1
1149,1313,1
1151,1150,1
1151,1216,1
1153,1152,1
1154,832,1
1154,1193,1
1155,1228,1
1155,1357,1
1158,1157,1
1158,1453,1
1159,1161,1
1162,1160,1
1162,1485,1
1163,1536,1
1164,1166,1
1165,1167,1
1166,1106,1
1166,1452,1
1167,1105,1
1169,1122,1
1171,1269,1
1172,1539,1
1173,858,1
1174,859,1
1175,834,1
1176,1178,1
1178,834,1
1179,1522,1
1180,1365,1
1181,1115,1
1182,1088,1
1182,1463,1
1183,1488,1
1184,86,1
1184,903,1
1184,953,1
1184,1236,1
1185,1489,1
1186,1188,1
1187,1189,1
1188,1256,1
1190,715,1
1190,926,1
1190,1181,1
1191,1019,1
1191,1141,1
1192,84,1
1192,1018,1
1192,1282,1
1193,1012,1
1194,1183,1
1194,1534,1
1195,1132,1
1198,1200,1
1199,821,1
1199,948,1
1199,1197,1
1201,904,1
1201,1202,1
1201,1373,1
1202,1338,1
1204,1279,1
1206,892,1
1206,1599,1
1207,889,1
1207,921,1
1209,1192,1
1209,1208,1
1209,1479,1
1211,1346,1
1212,1144,1
1213,1212,1
1213,1336,1
1213,1593,1
1214,870,1
1215,1249,1
1216,1027,1
1216,1031,1
1216,1035,1
1217,1029,1
1217,1034,1
1217,1036,1
1217,1043,1
1218,1219,1
1220,928,1
1220,1096,1
1221,1222,1
1222,997,1
1222,1158,1
1226,1224,1
1227,1225,1
1230,900,1
1230,1498,1
1231,1023,1
1232,1131,1
1233,1085,1
1233,1312,1
1233,1363,1
1233,1382,1
1233,1599,1
1234,1347,1
1234,1564,1
1235,936,1
1236,915,1
1237,1099,1
1239,1238,1
1239,1565,1
1240,929,1
1241,1518,1
1242,1243,1
1244,1546,1
1246,1248,1
1248,1375,1
1249,1427,1
1250,1271,1
1250,1290,1
1251,910,1
1251,1243,1
1251,1250,1
1251,1487,1
1252,1514,1
1253,1544,1
1254,1256,1
1257,1255,1
1259,1336,1
1260,1227,1
1261,1226,1
1261,1260,1
1262,1528,1
1263,966,1
1264,1265,1
1266,1082,1
1267,1292,1
1268,829,1
1271,1119,1
1271,1270,1
1274,1272,1
1275,1273,1
1275,1545,1
1277,1339,1
1278,1195,1
1280,1212,1
1281,1213,1
1282,961,1
1284,1065,1
1284,1137,1
1286,1288,1
1287,1019,1
1288,868,1
1288,1192,1
1289,898,1
1292,981,1
1293,978,1
1293,1467,1
1294,886,1
1296,1284,1
1297,1298,1
1298,1285,1
1299,798,1
1301,1120,1
1302,1141,1
1305,1307,1
1306,985,1
1306,1045,1
1306,1304,1
1307,1538,1
1308,1420,1
1309,1562,1
1310,1462,1
1311,999,1
1313,1265,1
1314,1315,1
1315,815,1
1315,1183,1
1317,1319,1
1318,978,1
1318,1146,1
1318,1316,1
1320,878,1
1321,1323,1
1323,876,1
1323,1360,1
1325,1203,1
1326,1070,1
1326,1244,1
1327,1245,1
1328,807,1
1328,851,1
1328,1086,1
1328,1295,1
1329,1587,1
1330,1244,1
1331,1059,1
1332,1334,1
1334,794,1
1334,830,1
1335,1075,1
1335,1333,1
1337,827,1
1337,1262,1
1338,964,1
1340,1261,1
1341,1468,1
1342,1123,1
1342,1301,1
1343,920,1
1343,1107,1
1343,1344,1
1343,1574,1
1344,1520,1
1345,804,1
1345,1203,1
1345,1210,1
1346,1426,1
1346,1527,1
1346,1579,1
1348,625,1
1348,1217,1
1351,1452,1
1351,1494,1
1353,1196,1
1353,1352,1
1355,822,1
1355,1200,1
1358,859,1
1359,1104,1
1362,1361,1
1362,1570,1
1365,836,1
1365,1364,1
1366,975,1
1367,1185,1
1367,1432,1
1368,1228,1
1371,1370,1
1372,905,1
1374,1335,1
1375,1247,1
1375,1376,1
1376,1392,1
1376,1538,1
1377,1378,1
1378,995,1
1379,1388,1
1380,1189,1
1380,1205,1
1381,1512,1
1382,92,1
1382,1148,1
1383,1131,1
1383,1226,1
1383,1382,1
1384,92,1
1384,1179,1
1385,794,1
1385,1081,1
1389,876,1
1389,1170,1
1389,1537,1
1390,1248,1
1391,1392,1
1394,1393,1
1395,1397,1
1397,1443,1
1398,1416,1
1399,1465,1
1399,1584,1
1401,1400,1
1405,1540,1
1407,1406,1
1407,1581,1
1408,1285,1
1411,1408,1
1412,1413,1
1413,1556,1
1414,1430,1
1415,977,1
1416,1514,1
1416,1551,1
1417,1151,1
1417,1284,1
1418,870,1
1418,871,1
1418,1298,1
1420,912,1
1422,949,1
1422,1421,1
1423,1421,1
1423,1463,1
1425,1245,1
1426,1142,1
1426,1386,1
1427,1431,1
1427,1432,1
1428,1092,1
1429,1093,1
1431,1089,1
1435,1291,1
1435,1518,1
1438,1440,1
1439,1437,1
1441,1443,1
1442,1539,1
1444,657,1
1444,1217,1
1445,1375,1
1445,1424,1
1446,1448,1
1447,1449,1
1448,1182,1
1449,893,1
1449,1182,1
1450,1054,1
1453,1415,1
1454,1283,1
1457,1459,1
1460,1458,1
1461,1600,1
1462,814,1
1464,1063,1
1469,1515,1
1469,1554,1
1470,882,1
1470,982,1
1472,1098,1
1473,1190,1
1474,1190,1
1475,1435,1
1476,1168,1
1476,1322,1
1476,1360,1
1477,817,1
1478,911,1
1478,978,1
1479,807,1
1482,900,1
1482,1383,1
1482,1466,1
1483,789,1
1483,790,1
1483,791,1
1483,803,1
1484,788,1
1485,1147,1
1487,1492,1
1488,814,1
1489,829,1
1489,1092,1
1489,1426,1
1490,1153,1
1491,1003,1
1491,1490,1
1493,1494,1
1495,1096,1
1495,1290,1
1496,1498,1
1497,1499,1
1498,1526,1
1499,1231,1
1499,1363,1
1500,1277,1
1502,1394,1
1502,1503,1
1503,1265,1
1503,1339,1
1504,100,1
1504,1214,1
1504,1455,1
1504,1456,1
1505,101,1
1505,1219,1
1505,1557,1
1507,1303,1
1508,1257,1
1511,1095,1
1511,1509,1
1513,1439,1
1514,1253,1
1515,1502,1
1517,1200,1
1517,1506,1
1517,1507,1
1517,1584,1
1518,1541,1
1520,795,1
1520,1519,1
1521,1522,1
1522,1020,1
1523,1037,1
1523,1044,1
1524,102,1
1524,1030,1
1524,1040,1
1524,1203,1
1524,1373,1
1531,938,1
1531,1529,1
1532,1095,1
1532,1530,1
1533,1369,1
1533,1461,1
1534,1504,1
1535,1239,1
1536,103,1
1536,1276,1
1537,1415,1
1538,1117,1
1538,1329,1
1539,1404,1
1540,1443,1
1540,1583,1
1542,1505,1
1543,1269,1
1544,1398,1
1546,1069,1
1547,1548,1
1548,1417,1
1548,1579,1
1549,1065,1
1549,1486,1
1550,1418,1
1552,1008,1
1552,1011,1
1552,1074,1
1552,1371,1
1552,1388,1
1553,833,1
1553,1012,1
1553,1347,1
1555,1470,1
1556,1000,1
1556,1171,1
1558,821,1
1559,822,1
1560,852,1
1560,1592,1
1561,901,1
1563,1564,1
1565,936,1
1565,1384,1
1566,826,1
1569,1278,1
1569,1567,1
1570,1568,1
1571,1103,1
1573,855,1
1573,1565,1
1574,1089,1
1574,1477,1
1575,865,1
1576,1193,1
1576,1433,1
1577,913,1
1577,1293,1
1577,1294,1
1577,1434,1
1578,1192,1
1578,1560,1
1580,1175,1
1580,1177,1
1580,1319,1
1580,1581,1
1581,1146,1
1585,1102,1
1586,1582,1
1588,1589,1
1589,1066,1
1591,944,1
1592,805,1
1592,1590,1
1594,850,1
1594,1213,1
1595,1430,1
1596,796,1
1598,1303,1
1601,1410,1
1602,1729,1
1602,2001,1
1603,1605,1
1603,2103,1
1605,1604,1
1606,2095,1
1607,1809,1
1608,1687,1
1610,1987,1
1611,1610,1
1612,1641,1
1614,1656,1
1615,1867,1
1616,1848,1
1616,2071,1
1617,2031,1
1618,1617,1
1618,1619,1
1618,1651,1
1618,1984,1
1619,1777,1
1620,1621,1
1620,1897,1
1620,2059,1
1623,113,1
1623,1610,1
1623,1830,1
1623,2383,1
1625,1820,1
1625,1940,1
1627,2087,1
1628,2107,1
1628,2112,1
1629,1659,1
1630,1840,1
1631,1647,1
1632,1664,1
1633,1874,1
1633,1906,1
1634,2113,1
1636,1635,1
1637,1932,1
1638,1990,1
1638,2044,1
1638,2070,1
1639,2103,1
1640,1903,1
1642,1692,1
1643,1846,1
1644,1761,1
1646,1655,1
1646,1674,1
1647,114,1
1647,1648,1
1647,1731,1
1647,1767,1
1647,1886,1
1647,2027,1
1649,1642,1
1649,1752,1
1649,1884,1
1649,1948,1
1650,1645,1
1650,1930,1
1650,1931,1
1650,2068,1
1650,2077,1
1653,2018,1
1655,117,1
1655,1901,1
1658,1913,1
1659,1985,1
1660,1737,1
1660,1805,1
1661,1667,1
1661,1804,1
1662,1612,1
1662,1788,1
1662,1826,1
1663,1652,1
1665,1664,1
1666,1983,1
1667,1666,1
1667,2038,1
1668,1743,1
1668,1797,1
1669,1654,1
1669,1670,1
1669,1758,1
1672,2059,1
1673,1656,1
1673,1851,1
1673,1986,1
1674,1854,1
1675,1684,1
1675,1917,1
1676,1864,1
1677,1907,1
1678,1926,1
1680,118,1
1681,1680,1
1681,1904,1
1682,1683,1
1684,1683,1
1684,2015,1
1686,1697,1
1686,1962,1
1687,1983,1
1688,1835,1
1688,2086,1
1689,2062,1
1691,1861,1
1693,1632,1
1693,1658,1
1695,1694,1
1696,1697,1
1699,1793,1
1700,1609,1
1702,1687,1
1702,1689,1
1703,1788,1
1703,1951,1
1705,1974,1
1706,2112,1
1707,2113,1
1708,2113,1
1709,2112,1
1710,1884,1
1712,1713,1
1712,2017,1
1714,2056,1
1715,2022,1
1716,1847,1
1717,1718,1
1719,2085,1
1719,2087,1
1720,1686,1
1720,2071,1
1723,1731,1
1723,1838,1
1724,1795,1
1726,1756,1
1726,1766,1
1727,1726,1
1728,1870,1
1732,2027,1
1733,1735,1
1733,1737,1
1734,1624,1
1734,1830,1
1735,1639,1
1736,196,1
1736,2065,1
1738,1883,1
1739,1716,1
1739,1969,1
1740,2064,1
1741,1882,1
1743,1742,1
1745,1143,1
1747,1800,1
1747,2044,1
1747,2082,1
1748,1637,1
1748,1715,1
1748,2042,1
1750,1919,1
1751,2072,1
1753,1772,1
1755,1749,1
1757,1679,1
1758,1822,1
1759,1603,1
1760,1712,1
1760,1863,1
1760,1888,1
1761,124,1
1761,1883,1
1761,2234,1
1762,1712,1
1764,1760,1
1765,1883,1
1766,1935,1
1769,1919,1
1772,1801,1
1773,1755,1
1773,2066,1
1774,1791,1
1775,1664,1
1778,1782,1
1780,2067,1
1781,1920,1
1783,1752,1
1785,1920,1
1787,283,1
1787,1729,1
1789,1790,1
1791,1786,1
1792,1919,1
1794,1756,1
1795,1894,1
1796,1793,1
1796,1794,1
1796,1843,1
1796,1878,1
1797,1798,1
1801,1759,1
1802,1309,1
1802,1803,1
1802,2092,1
1804,1652,1
1806,2065,1
1807,1839,1
1808,1734,1
1809,1964,1
1810,1635,1
1810,1811,1
1812,1865,1
1813,1812,1
1814,129,1
1814,1698,1
1814,1705,1
1814,1969,1
1814,2069,1
1815,1814,1
1816,2068,1
1818,1819,1
1820,1814,1
1821,1845,1
1823,1609,1
1823,1629,1
1823,1910,1
1823,2084,1
1826,1608,1
1827,1686,1
1827,1985,1
1829,1807,1
1831,1846,1
1832,1623,1
1832,1694,1
1834,1960,1
1836,1975,1
1837,1962,1
1839,1619,1
1839,2100,1
1840,2010,1
1843,2000,1
1844,1722,1
1844,2070,1
1845,135,1
1846,1992,1
1847,1925,1
1848,1939,1
1849,2071,1
1852,1918,1
1853,1986,1
1855,1761,1
1856,1986,1
1856,2047,1
1857,1822,1
1859,1613,1
1860,1634,1
1861,2093,1
1862,1860,1
1864,1831,1
1865,1866,1
1865,1963,1
1865,2090,1
1869,1877,1
1869,1978,1
1871,1637,1
1871,1721,1
1872,1025,1
1873,1881,1
1874,1691,1
1875,1876,1
1876,1878,1
1877,1875,1
1878,1690,1
1879,1690,1
1880,1868,1
1880,2050,1
1881,2000,1
1881,2033,1
1882,140,1
1882,1725,1
1882,2016,1
1882,2273,1
1883,2244,1
1883,2278,1
1884,1730,1
1884,2110,1
1885,1711,1
1885,1799,1
1885,1819,1
1886,1961,1
1887,1647,1
1889,1624,1
1889,1987,1
1890,1889,1
1892,1891,1
1894,1622,1
1895,1927,1
1897,1988,1
1898,1624,1
1898,1899,1
1900,1895,1
1900,2073,1
1901,1744,1
1902,141,1
1902,2073,1
1902,2075,1
1903,141,1
1903,1900,1
1903,2104,1
1906,1724,1
1906,1824,1
1906,1907,1
1906,1928,1
1907,1914,1
1909,1919,1
1910,2097,1
1914,1915,1
1914,2038,1
1917,1656,1
1918,1653,1
1918,1674,1
1919,1768,1
1919,1778,1
1919,1784,1
1919,1789,1
1920,1754,1
1920,1770,1
1920,1779,1
1920,1908,1
1921,1613,1
1921,1922,1
1921,1995,1
1922,1701,1
1922,2012,1
1923,1893,1
1923,2076,1
1924,1854,1
1924,1901,1
1926,1824,1
1926,1853,1
1929,1907,1
1930,2074,1
1932,1880,1
1933,1925,1
1933,2095,1
1934,1885,1
1934,1988,1
1939,1845,1
1942,1776,1
1942,1829,1
1943,1888,1
1943,1993,1
1944,1835,1
1944,2049,1
1945,1676,1
1945,1757,1
1945,1845,1
1945,1850,1
1946,1867,1
1946,2015,1
1948,1947,1
1949,1865,1
1950,1654,1
1950,1951,1
1952,1822,1
1953,1952,1
1953,2093,1
1954,1717,1
1956,1704,1
1956,1955,1
1958,1957,1
1959,1739,1
1960,1680,1
1963,1742,1
1964,1760,1
1965,2048,1
1966,2090,1
1966,2114,1
1967,1717,1
1968,2048,1
1971,1644,1
1973,1963,1
1974,1976,1
1976,1833,1
1977,1931,1
1978,2013,1
1980,2077,1
1981,1730,1
1982,1981,1
1984,2063,1
1987,150,1
1987,1957,1
1987,1981,1
1988,2108,1
1989,1991,1
1993,1737,1
1994,1873,1
1996,1911,1
1997,1680,1
1998,1679,1
1998,1858,1
1999,1744,1
1999,1970,1
2002,1902,1
2004,2006,1
2005,2007,1
2006,2010,1
2007,2009,1
2007,2010,1
2008,2006,1
2010,1839,1
2010,2011,1
2011,2003,1
2013,1873,1
2014,1898,1
2018,2019,1
2020,1641,1
2021,1891,1
2021,2040,1
2021,2058,1
2022,2035,1
2023,2001,1
2024,1643,1
2025,1949,1
2026,2025,1
2028,1647,1
2029,1682,1
2030,1619,1
2032,1841,1
2032,2075,1
2033,1955,1
2034,2058,1
2037,2022,1
2037,2036,1
2038,1970,1
2039,2036,1
2041,1892,1
2043,1745,1
2044,1936,1
2045,1637,1
2045,1937,1
2045,2052,1
2046,1709,1
2049,1989,1
2050,2034,1
2052,2057,1
2053,2042,1
2054,1842,1
2055,2037,1
2056,2021,1
2060,1671,1
2060,1896,1
2060,1957,1
2061,1817,1
2061,1884,1
2064,1883,1
2064,2029,1
2065,1877,1
2066,1771,1
2066,1920,1
2068,1818,1
2069,1685,1
2069,2046,1
2072,1920,1
2074,1979,1
2076,1622,1
2078,1995,1
2079,1881,1
2079,1990,1
2079,2051,1
2080,1846,1
2080,1922,1
2080,2115,1
2081,2076,1
2084,1965,1
2085,1746,1
2085,1996,1
2086,1913,1
2088,2089,1
2088,2092,1
2089,898,1
2090,152,1
2090,1810,1
2091,1938,1
2091,1972,1
2091,2059,1
2094,2078,1
2096,1681,1
2096,1912,1
2097,2099,1
2098,1828,1
2099,2098,1
2100,1916,1
2101,1825,1
2101,1855,1
2102,1836,1
2102,1837,1
2104,1728,1
2105,1868,1
2105,1941,1
2106,1657,1
2106,2038,1
2107,2067,1
2108,1717,1
2109,2108,1
2111,1885,1
2112,154,1
2112,1911,1
2113,154,1
2113,1626,1
2113,1786,1
2113,1790,1
2113,1968,1
2114,1748,1
2116,2167,1
2118,2131,1
2119,2369,1
2120,2245,1
2120,2365,1
2121,2199,1
2122,2121,1
2122,2315,1
2123,2306,1
2124,2129,1
2124,2250,1
2125,2229,1
2126,2194,1
2127,2290,1
2132,2126,1
2132,2196,1
2133,2269,1
2134,155,1
2134,2118,1
2134,2133,1
2134,2194,1
2134,2337,1
2136,2282,1
2137,2130,1
2138,2173,1
2143,2187,1
2143,2294,1
2144,2145,1
2145,2328,1
2146,2137,1
2146,2189,1
2147,2233,1
2150,2229,1
2152,2290,1
2154,2200,1
2155,2360,1
2157,157,1
2157,2156,1
2157,2158,1
2158,2121,1
2158,2213,1
2159,2375,1
2160,2159,1
2160,2279,1
2161,2298,1
2164,2135,1
2164,2151,1
2165,159,1
2165,2233,1
2166,2171,1
2166,2297,1
2166,2338,1
2167,2287,1
2168,2370,1
2169,162,1
2169,2138,1
2170,161,1
2170,2205,1
2170,2206,1
2170,2275,1
2172,2173,1
2172,2341,1
2173,2179,1
2173,2332,1
2174,2257,1
2180,2172,1
2181,2339,1
2182,2340,1
2184,2296,1
2185,2175,1
2185,2325,1
2186,164,1
2186,2175,1
2186,2193,1
2186,2309,1
2187,2221,1
2188,2186,1
2188,2221,1
2188,2324,1
2190,2285,1
2191,2228,1
2191,2250,1
2191,2335,1
2192,2237,1
2192,2274,1
2195,166,1
2195,2162,1
2195,2196,1
2195,2212,1
2196,2163,1
2198,2272,1
2200,2361,1
2202,2201,1
2203,2328,1
2204,2196,1
2204,2210,1
2206,2356,1
2209,2178,1
2209,2207,1
2209,2351,1
2210,2316,1
2211,2224,1
2212,2295,1
2214,2211,1
2216,2117,1
2216,2218,1
2217,2215,1
2217,2237,1
2220,2119,1
2220,2196,1
2222,2227,1
2223,2221,1
2223,2240,1
2224,2213,1
2224,2318,1
2225,2187,1
2225,2276,1
2226,2362,1
2228,2267,1
2230,2229,1
2230,2355,1
2232,2177,1
2235,2117,1
2235,2183,1
2235,2257,1
2236,2231,1
2237,2247,1
2238,2221,1
2240,2335,1
2242,2246,1
2243,2309,1
2244,2310,1
2245,313,1
2245,2218,1
2247,2176,1
2248,2054,1
2248,2269,1
2249,315,1
2249,2262,1
2251,2159,1
2251,2219,1
2253,2274,1
2254,2323,1
2255,2208,1
2257,2260,1
2257,2262,1
2258,169,1
2258,2198,1
2258,2246,1
2258,2257,1
2258,2261,1
2259,2233,1
2260,170,1
2261,171,1
2261,2260,1
2261,2272,1
2263,2165,1
2263,2168,1
2264,2270,1
2264,2271,1
2265,2378,1
2266,2261,1
2267,2174,1
2268,2135,1
2268,2239,1
2270,2272,1
2271,2260,1
2273,2237,1
2274,2197,1
2276,2191,1
2279,2280,1
2280,2242,1
2282,2166,1
2283,2256,1
2284,2127,1
2284,2159,1
2285,2314,1
2286,2167,1
2286,2184,1
2287,2256,1
2288,2344,1
2288,2345,1
2289,2310,1
2291,2305,1
2292,2232,1
2292,2308,1
2293,2330,1
2294,2336,1
2296,2165,1
2298,2238,1
2299,2169,1
2300,2304,1
2300,2353,1
2300,2354,1
2301,2218,1
2302,2196,1
2303,2154,1
2303,2343,1
2304,2139,1
2306,2131,1
2307,2169,1
2311,2119,1
2311,2252,1
2313,2149,1
2313,2312,1
2313,2381,1
2316,2142,1
2316,2305,1
2317,2329,1
2318,2321,1
2319,2313,1
2319,2374,1
2320,2203,1
2322,2323,1
2323,2151,1
2323,2329,1
2324,2243,1
2326,2283,1
2327,2293,1
2328,2165,1
2330,2171,1
2331,335,1
2331,2260,1
2333,1882,1
2334,2231,1
2334,2281,1
2336,2195,1
2338,2241,1
2339,2140,1
2339,2227,1
2339,2343,1
2340,173,1
2340,2339,1
2341,2208,1
2342,2339,1
2343,2342,1
2344,2342,1
2345,2141,1
2346,2244,1
2347,2342,1
2348,2137,1
2348,2379,1
2349,2140,1
2351,2157,1
2352,2177,1
2353,2378,1
2354,2377,1
2355,2265,1
2356,2172,1
2357,174,1
2357,175,1
2357,2141,1
2358,2357,1
2359,2236,1
2359,2324,1
2360,2363,1
2361,2234,1
2361,2358,1
2362,2232,1
2362,2361,1
2363,2357,1
2364,2367,1
2365,2128,1
2365,2261,1
2366,2156,1
2366,2277,1
2366,2350,1
2367,2170,1
2367,2326,1
2368,2195,1
2371,2167,1
2372,2357,1
2373,2372,1
2374,2148,1
2374,2153,1
2376,2202,1
2376,2273,1
2377,176,1
2377,2125,1
2377,2138,1
2378,2377,1
2379,2295,1
2379,2324,1
2380,2239,1
2380,2254,1
2381,179,1
2381,2380,1
2381,2382,1
2382,2190,1
2,2,2
5,5,2
7,7,2
10,10,2
12,12,2
15,15,2
17,17,2
20,20,2
21,21,2
23,23,2
24,24,2
25,25,2
26,26,2
27,27,2
29,29,2
32,32,2
34,34,2
36,36,2
37,37,2
38,38,2
43,43,2
45,45,2
48,48,2
51,51,2
52,52,2
53,53,2
54,54,2
55,55,2
58,58,2
59,59,2
60,60,2
62,62,2
65,65,2
68,68,2
69,69,2
71,71,2
72,72,2
73,73,2
74,74,2
77,77,2
79,79,2
80,80,2
83,83,2
85,85,2
86,86,2
87,87,2
96,96,2
98,98,2
100,100,2
102,102,2
103,103,2
104,104,2
105,105,2
106,106,2
107,107,2
112,112,2
113,113,2
117,117,2
118,118,2
119,119,2
121,121,2
123,123,2
126,126,2
131,131,2
132,132,2
135,135,2
138,138,2
139,139,2
141,141,2
142,142,2
144,144,2
147,147,2
149,149,2
151,151,2
152,152,2
156,156,2
158,158,2
159,159,2
160,160,2
164,164,2
167,167,2
170,170,2
171,171,2
172,172,2
173,173,2
174,174,2
175,175,2
176,176,2
178,178,2
180,180,2
181,181,2
182,182,2
183,183,2
184,184,2
189,189,2
191,191,2
193,193,2
195,195,2
198,198,2
199,199,2
200,200,2
201,201,2
202,202,2
205,205,2
206,206,2
208,208,2
209,209,2
210,210,2
211,211,2
212,212,2
214,214,2
215,215,2
220,220,2
225,225,2
226,226,2
234,234,2
237,237,2
239,239,2
243,243,2
245,245,2
246,246,2
249,249,2
250,250,2
251,251,2
252,252,2
256,256,2
258,258,2
266,266,2
267,267,2
270,270,2
272,272,2
273,273,2
276,276,2
277,277,2
278,278,2
280,280,2
282,282,2
283,283,2
284,284,2
286,286,2
287,287,2
289,289,2
290,290,2
295,295,2
296,296,2
298,298,2
300,300,2
303,303,2
304,304,2
311,311,2
312,312,2
314,314,2
315,315,2
319,319,2
320,320,2
322,322,2
327,327,2
328,328,2
329,329,2
331,331,2
335,335,2
340,340,2
341,341,2
343,343,2
344,344,2
348,348,2
352,352,2
361,361,2
373,373,2
378,378,2
381,381,2
382,382,2
386,386,2
387,387,2
388,388,2
389,389,2
391,391,2
395,395,2
400,400,2
401,401,2
403,403,2
404,404,2
407,407,2
411,411,2
415,415,2
416,416,2
417,417,2
421,421,2
422,422,2
423,423,2
425,425,2
428,428,2
430,430,2
431,431,2
432,432,2
434,434,2
435,435,2
441,441,2
442,442,2
443,443,2
445,445,2
447,447,2
449,449,2
453,453,2
459,459,2
460,460,2
461,461,2
463,463,2
464,464,2
466,466,2
468,468,2
470,470,2
472,472,2
477,477,2
478,478,2
481,481,2
483,483,2
484,484,2
490,490,2
492,492,2
493,493,2
494,494,2
497,497,2
501,501,2
502,502,2
503,503,2
506,506,2
507,507,2
510,510,2
511,511,2
513,513,2
515,515,2
519,519,2
521,521,2
522,522,2
524,524,2
525,525,2
526,526,2
527,527,2
531,531,2
537,537,2
540,540,2
541,541,2
544,544,2
547,547,2
552,552,2
555,555,2
557,557,2
558,558,2
563,563,2
564,564,2
567,567,2
568,568,2
571,571,2
580,580,2
581,581,2
582,582,2
583,583,2
584,584,2
595,595,2
606,606,2
608,608,2
609,609,2
611,611,2
612,612,2
613,613,2
616,616,2
619,619,2
622,622,2
623,623,2
625,625,2
626,626,2
627,627,2
628,628,2
629,629,2
633,633,2
635,635,2
638,638,2
640,640,2
643,643,2
644,644,2
646,646,2
647,647,2
648,648,2
649,649,2
650,650,2
651,651,2
654,654,2
656,656,2
657,657,2
660,660,2
666,666,2
668,668,2
670,670,2
672,672,2
676,676,2
682,682,2
687,687,2
690,690,2
692,692,2
695,695,2
696,696,2
697,697,2
700,700,2
702,702,2
706,706,2
708,708,2
709,709,2
713,713,2
715,715,2
717,717,2
719,719,2
723,723,2
728,728,2
729,729,2
731,731,2
732,732,2
733,733,2
735,735,2
736,736,2
737,737,2
739,739,2
740,740,2
744,744,2
745,745,2
748,748,2
751,751,2
752,752,2
754,754,2
759,759,2
760,760,2
761,761,2
762,762,2
763,763,2
767,767,2
769,769,2
774,774,2
776,776,2
779,779,2
780,780,2
781,781,2
782,782,2
784,784,2
787,787,2
788,788,2
795,795,2
802,802,2
803,803,2
804,804,2
806,806,2
808,808,2
811,811,2
812,812,2
814,814,2
816,816,2
817,817,2
831,831,2
833,833,2
835,835,2
838,838,2
843,843,2
844,844,2
846,846,2
847,847,2
848,848,2
850,850,2
853,853,2
855,855,2
856,856,2
859,859,2
861,861,2
864,864,2
867,867,2
869,869,2
870,870,2
871,871,2
873,873,2
876,876,2
877,877,2
879,879,2
883,883,2
884,884,2
885,885,2
886,886,2
888,888,2
889,889,2
893,893,2
896,896,2
900,900,2
902,902,2
903,903,2
906,906,2
907,907,2
911,911,2
912,912,2
913,913,2
914,914,2
917,917,2
920,920,2
924,924,2
926,926,2
927,927,2
928,928,2
930,930,2
933,933,2
937,937,2
938,938,2
943,943,2
945,945,2
946,946,2
948,948,2
949,949,2
951,951,2
953,953,2
954,954,2
956,956,2
958,958,2
959,959,2
961,961,2
964,964,2
965,965,2
968,968,2
971,971,2
973,973,2
979,979,2
981,981,2
984,984,2
986,986,2
988,988,2
989,989,2
990,990,2
991,991,2
992,992,2
993,993,2
995,995,2
997,997,2
1000,1000,2
1012,1012,2
1013,1013,2
1017,1017,2
1020,1020,2
1026,1026,2
1027,1027,2
1030,1030,2
1031,1031,2
1032,1032,2
1033,1033,2
1037,1037,2
1038,1038,2
1042,1042,2
1046,1046,2
1047,1047,2
1048,1048,2
1051,1051,2
1056,1056,2
1057,1057,2
1059,1059,2
1061,1061,2
1062,1062,2
1066,1066,2
1069,1069,2
1070,1070,2
1073,1073,2
1074,1074,2
1075,1075,2
1077,1077,2
1080,1080,2
1081,1081,2
1082,1082,2
1084,1084,2
1085,1085,2
1087,1087,2
1091,1091,2
1093,1093,2
1094,1094,2
1100,1100,2
1106,1106,2
1107,1107,2
1108,1108,2
1109,1109,2
1110,1110,2
1112,1112,2
1113,1113,2
1118,1118,2
1120,1120,2
1121,1121,2
1124,1124,2
1126,1126,2
1127,1127,2
1130,1130,2
1133,1133,2
1138,1138,2
1140,1140,2
1142,1142,2
1143,1143,2
1147,1147,2
1149,1149,2
1150,1150,2
1151,1151,2
1155,1155,2
1156,1156,2
1159,1159,2
1160,1160,2
1162,1162,2
1165,1165,2
1169,1169,2
1170,1170,2
1171,1171,2
1178,1178,2
1181,1181,2
1183,1183,2
1184,1184,2
1185,1185,2
1188,1188,2
1193,1193,2
1206,1206,2
1208,1208,2
1226,1226,2
1231,1231,2
1236,1236,2
1240,1240,2
1242,1242,2
1249,1249,2
1250,1250,2
1251,1251,2
1254,1254,2
1255,1255,2
1256,1256,2
1257,1257,2
1258,1258,2
1261,1261,2
1263,1263,2
1266,1266,2
1271,1271,2
1277,1277,2
1278,1278,2
1282,1282,2
1285,1285,2
1286,1286,2
1291,1291,2
1292,1292,2
1293,1293,2
1294,1294,2
1301,1301,2
1302,1302,2
1306,1306,2
1309,1309,2
1315,1315,2
1317,1317,2
1320,1320,2
1322,1322,2
1323,1323,2
1325,1325,2
1326,1326,2
1331,1331,2
1332,1332,2
1338,1338,2
1341,1341,2
1344,1344,2
1345,1345,2
1348,1348,2
1349,1349,2
1350,1350,2
1354,1354,2
1358,1358,2
1360,1360,2
1366,1366,2
1367,1367,2
1369,1369,2
1371,1371,2
1372,1372,2
1374,1374,2
1375,1375,2
1379,1379,2
1381,1381,2
1383,1383,2
1390,1390,2
1392,1392,2
1393,1393,2
1395,1395,2
1396,1396,2
1397,1397,2
1398,1398,2
1399,1399,2
1401,1401,2
1404,1404,2
1405,1405,2
1406,1406,2
1408,1408,2
1409,1409,2
1412,1412,2
1413,1413,2
1414,1414,2
1417,1417,2
1420,1420,2
1424,1424,2
1425,1425,2
1426,1426,2
1428,1428,2
1441,1441,2
1448,1448,2
1450,1450,2
1451,1451,2
1453,1453,2
1455,1455,2
1456,1456,2
1458,1458,2
1461,1461,2
1468,1468,2
1469,1469,2
1471,1471,2
1476,1476,2
1479,1479,2
1481,1481,2
1483,1483,2
1484,1484,2
1485,1485,2
1486,1486,2
1487,1487,2
1489,1489,2
1490,1490,2
1493,1493,2
1496,1496,2
1498,1498,2
1500,1500,2
1503,1503,2
1506,1506,2
1508,1508,2
1511,1511,2
1512,1512,2
1513,1513,2
1515,1515,2
1516,1516,2
1517,1517,2
1519,1519,2
1520,1520,2
1521,1521,2
1522,1522,2
1526,1526,2
1527,1527,2
1528,1528,2
1529,1529,2
1531,1531,2
1533,1533,2
1534,1534,2
1541,1541,2
1542,1542,2
1547,1547,2
1548,1548,2
1549,1549,2
1550,1550,2
1551,1551,2
1552,1552,2
1553,1553,2
1556,1556,2
1560,1560,2
1563,1563,2
1565,1565,2
1571,1571,2
1574,1574,2
1575,1575,2
1576,1576,2
1580,1580,2
1581,1581,2
1582,1582,2
1583,1583,2
1585,1585,2
1587,1587,2
1589,1589,2
1592,1592,2
1594,1594,2
1596,1596,2
1600,1600,2
1603,1603,2
1607,1607,2
1608,1608,2
1611,1611,2
1612,1612,2
1616,1616,2
1618,1618,2
1622,1622,2
1624,1624,2
1627,1627,2
1631,1631,2
1633,1633,2
1635,1635,2
1639,1639,2
1640,1640,2
1641,1641,2
1644,1644,2
1647,1647,2
1650,1650,2
1651,1651,2
1654,1654,2
1656,1656,2
1658,1658,2
1662,1662,2
1665,1665,2
1666,1666,2
1667,1667,2
1670,1670,2
1673,1673,2
1676,1676,2
1680,1680,2
1682,1682,2
1683,1683,2
1684,1684,2
1690,1690,2
1694,1694,2
1695,1695,2
1698,1698,2
1699,1699,2
1701,1701,2
1702,1702,2
1706,1706,2
1707,1707,2
1709,1709,2
1717,1717,2
1720,1720,2
1721,1721,2
1722,1722,2
1725,1725,2
1731,1731,2
1735,1735,2
1736,1736,2
1738,1738,2
1739,1739,2
1742,1742,2
1743,1743,2
1745,1745,2
1746,1746,2
1748,1748,2
1750,1750,2
1751,1751,2
1756,1756,2
1759,1759,2
1760,1760,2
1761,1761,2
1763,1763,2
1764,1764,2
1771,1771,2
1772,1772,2
1775,1775,2
1777,1777,2
1781,1781,2
1783,1783,2
1784,1784,2
1787,1787,2
1788,1788,2
1789,1789,2
1790,1790,2
1791,1791,2
1794,1794,2
1798,1798,2
1801,1801,2
1802,1802,2
1803,1803,2
1804,1804,2
1806,1806,2
1807,1807,2
1809,1809,2
1813,1813,2
1814,1814,2
1818,1818,2
1821,1821,2
1824,1824,2
1831,1831,2
1832,1832,2
1836,1836,2
1837,1837,2
1838,1838,2
1839,1839,2
1848,1848,2
1850,1850,2
1852,1852,2
1853,1853,2
1854,1854,2
1855,1855,2
1857,1857,2
1859,1859,2
1860,1860,2
1862,1862,2
1865,1865,2
1866,1866,2
1867,1867,2
1869,1869,2
1870,1870,2
1874,1874,2
1875,1875,2
1877,1877,2
1880,1880,2
1882,1882,2
1883,1883,2
1891,1891,2
1895,1895,2
1897,1897,2
1899,1899,2
1901,1901,2
1912,1912,2
1915,1915,2
1919,1919,2
1921,1921,2
1922,1922,2
1923,1923,2
1924,1924,2
1925,1925,2
1926,1926,2
1930,1930,2
1931,1931,2
1932,1932,2
1938,1938,2
1939,1939,2
1942,1942,2
1948,1948,2
1950,1950,2
1953,1953,2
1954,1954,2
1957,1957,2
1960,1960,2
1961,1961,2
1962,1962,2
1963,1963,2
1964,1964,2
1966,1966,2
1980,1980,2
1983,1983,2
1985,1985,2
1990,1990,2
1991,1991,2
1992,1992,2
1994,1994,2
1995,1995,2
1996,1996,2
1999,1999,2
2000,2000,2
2002,2002,2
2003,2003,2
2005,2005,2
2007,2007,2
2008,2008,2
2010,2010,2
2011,2011,2
2012,2012,2
2013,2013,2
2014,2014,2
2015,2015,2
2020,2020,2
2021,2021,2
2024,2024,2
2025,2025,2
2027,2027,2
2028,2028,2
2029,2029,2
2032,2032,2
2033,2033,2
2035,2035,2
2037,2037,2
2041,2041,2
2042,2042,2
2043,2043,2
2045,2045,2
2052,2052,2
2053,2053,2
2057,2057,2
2058,2058,2
2060,2060,2
2061,2061,2
2063,2063,2
2064,2064,2
2069,2069,2
2070,2070,2
2072,2072,2
2075,2075,2
2078,2078,2
2079,2079,2
2084,2084,2
2085,2085,2
2086,2086,2
2089,2089,2
2093,2093,2
2096,2096,2
2098,2098,2
2099,2099,2
2101,2101,2
2102,2102,2
2103,2103,2
2105,2105,2
2109,2109,2
2110,2110,2
2113,2113,2
2115,2115,2
2122,2122,2
2124,2124,2
2127,2127,2
2129,2129,2
2131,2131,2
2136,2136,2
2138,2138,2
2141,2141,2
2143,2143,2
2144,2144,2
2145,2145,2
2146,2146,2
2150,2150,2
2151,2151,2
2154,2154,2
2158,2158,2
2163,2163,2
2171,2171,2
2177,2177,2
2179,2179,2
2183,2183,2
2185,2185,2
2195,2195,2
2200,2200,2
2205,2205,2
2207,2207,2
2211,2211,2
2214,2214,2
2216,2216,2
2217,2217,2
2218,2218,2
2220,2220,2
2223,2223,2
2224,2224,2
2225,2225,2
2226,2226,2
2227,2227,2
2228,2228,2
2229,2229,2
2242,2242,2
2243,2243,2
2245,2245,2
2246,2246,2
2249,2249,2
2250,2250,2
2251,2251,2
2252,2252,2
2254,2254,2
2255,2255,2
2257,2257,2
2258,2258,2
2259,2259,2
2263,2263,2
2264,2264,2
2265,2265,2
2268,2268,2
2270,2270,2
2271,2271,2
2272,2272,2
2273,2273,2
2274,2274,2
2276,2276,2
2279,2279,2
2281,2281,2
2284,2284,2
2285,2285,2
2286,2286,2
2287,2287,2
2288,2288,2
2292,2292,2
2296,2296,2
2299,2299,2
2301,2301,2
2305,2305,2
2308,2308,2
2309,2309,2
2312,2312,2
2314,2314,2
2319,2319,2
2320,2320,2
2323,2323,2
2325,2325,2
2327,2327,2
2329,2329,2
2331,2331,2
2332,2332,2
2334,2334,2
2335,2335,2
2337,2337,2
2338,2338,2
2341,2341,2
2346,2346,2
2348,2348,2
2352,2352,2
2359,2359,2
2361,2361,2
2362,2362,2
2363,2363,2
2364,2364,2
2365,2365,2
2366,2366,2
2367,2367,2
2368,2368,2
2369,2369,2
2371,2371,2
2374,2374,2
2376,2376,2
2382,2382,2
2383,2383,2
78,78,3
91,91,3
128,128,3
145,145,3
154,154,3
168,168,3
238,238,3
253,253,3
254,254,3
259,259,3
281,281,3
338,338,3
363,363,3
368,368,3
390,390,3
408,408,3
409,409,3
498,498,3
512,512,3
514,514,3
562,562,3
593,593,3
655,655,3
699,699,3
707,707,3
743,743,3
753,753,3
766,766,3
796,796,3
819,819,3
866,866,3
872,872,3
892,892,3
897,897,3
898,898,3
923,923,3
929,929,3
950,950,3
955,955,3
996,996,3
1005,1005,3
1028,1028,3
1053,1053,3
1172,1172,3
1187,1187,3
1192,1192,3
1199,1199,3
1209,1209,3
1225,1225,3
1237,1237,3
1246,1246,3
1318,1318,3
1352,1352,3
1370,1370,3
1376,1376,3
1386,1386,3
1444,1444,3
1459,1459,3
1472,1472,3
1546,1546,3
1572,1572,3
1573,1573,3
1586,1586,3
1660,1660,3
1685,1685,3
1692,1692,3
1696,1696,3
1708,1708,3
1728,1728,3
1776,1776,3
1817,1817,3
1819,1819,3
1830,1830,3
1840,1840,3
1847,1847,3
1940,1940,3
1941,1941,3
1952,1952,3
1958,1958,3
1965,1965,3
2001,2001,3
2004,2004,3
2018,2018,3
2026,2026,3
2034,2034,3
2038,2038,3
2040,2040,3
2066,2066,3
2097,2097,3
2106,2106,3
2173,2173,3
2182,2182,3
2234,2234,3
2261,2261,3
2289,2289,3
2302,2302,3
2306,2306,3
2318,2318,3
2373,2373,3
2379,2379,3
